# Packages
 &PACKAGES
#  useGMRedi = .TRUE.,
  useCAL    = .TRUE.,
  useKPP    = .TRUE.,
  useEXF    = .TRUE.,
  useSEAICE = .TRUE.,
  useDiagnostics = .TRUE.,
  useSALT_PLUME = .TRUE.,
## useMNC    = .TRUE.,
  useECCO   = .TRUE.,
#  useProfiles = .TRUE.,
  useOBSFIT  = .TRUE.,
#  useGrdchk = .TRUE.,
  useSMOOTH = .TRUE.,
 &
